/*--------------------------------*- C++ -*----------------------------------*\
| =========                 |                                                 |
| \\      /  F ield         | OpenFOAM: The Open Source CFD Toolbox           |
|  \\    /   O peration     | Version:  v2206                                 |
|   \\  /    A nd           | Website:  www.openfoam.com                      |
|    \\/     M anipulation  |                                                 |
\*---------------------------------------------------------------------------*/
FoamFile
{
    version     2.0;
    format      ascii;
    class       dictionary;
    object      createPatchDict;
}
// * * * * * * * * * * * * * * * * * * * * * * * * * * * * * * * * * * * * * //

matchTolerance 1E-6;

pointSync true;

patches
(
    {
        name evaporator;
        patchInfo
        {
            type wall;
        }
        constructFrom set;
        set evaporator;
    }
    
    {
        name adiabatic;
        patchInfo
        {
            type wall;
        }
        constructFrom set;
        set adiabatic;
    }
    
    {
        name condenser;
        patchInfo
        {
            type wall;
        }
        constructFrom set;
        set condenser;
    }
    
);

// ************************************************************************* //
