/*--------------------------------*- C++ -*----------------------------------*\
| =========                 |                                                 |
| \\      /  F ield         | OpenFOAM: The Open Source CFD Toolbox           |
|  \\    /   O peration     | Version:  v2206                                 |
|   \\  /    A nd           | Website:  www.openfoam.com                      |
|    \\/     M anipulation  |                                                 |
\*---------------------------------------------------------------------------*/
FoamFile
{
    version     2.0;
    format      ascii;
    class       volScalarField;
    object      T;
}
// * * * * * * * * * * * * * * * * * * * * * * * * * * * * * * * * * * * * * //

dimensions      [0 0 0 1 0 0 0];

internalField   uniform 281.35;

boundaryField
{
    #includeEtc "caseDicts/setConstraintTypes"

    condenser
    {
    //    type            uniformFixedValue;
    //    uniformValue    293.15;
        type            externalWallHeatFluxTemperature;
 
        mode            coefficient;
 
        Ta              constant 281.35;
        h               constant 539.0;
 
        kappaMethod     solidThermo;
 
        value           $internalField;
    }
    
    internalSolidWalls
    {
        type            compressible::turbulentTemperatureRadCoupledMixed;
        value           $internalField;
        Tnbr            T;
        kappaMethod     solidThermo;
    }

    evaporator
    {
     //   type            uniformFixedValue;
     //   uniformValue    310.15;
        type            externalWallHeatFluxTemperature;
        mode            flux; 
        q              constant 4966.3512;
        kappaMethod     solidThermo;
        value           $internalField;
    }

    adiabatic
    {
        type            zeroGradient;
        value           $internalField;
    }
}


// ************************************************************************* //
